ELEMENTS
O N  
END

SPECIES
N2 N O2 O NO
END

REACTIONS
! C. Park, R.L. Jaffe and H. Partridge (2001) 
! Chemical-Kinetic Parameters of Hyperbolic Earth Entry, JTHT
! doi:10.2514/2.6582
!
! ------------------ k = A*T**b exp(-E/RT) -------------------
!                                       A        b        E
N2+M=2N+M                            3.0E+22   -1.6   113200.0
   N2/0.2333/ NO/0.2333/ O2/0.2333/
O2+M=2O+M                            1.0E+22   -1.5    59360.0
   N2/0.2/ NO/0.2/ O2/0.2/
NO+M=N+O+M                           5.0E+15    0.0    75500.0
   NO/22.0/ N/22.0/ O/22.0/
N2+O=NO+N                            5.7E+12    0.42   42938.0
NO+O=O2+N                            8.4E+12    0.0    19400.0
END